test/data_tests/ThreeBusRenewable_RENA.raw
0,   100.00, 33, 0, 0, 60.00     / PSS(R)E 33 RAW created by rawd33  THU, JUL 15 2021  18:03


   101,'BUS 1       ', 138.0000,1,   1,   1,   1,1.00484,  -1.2483,1.10000,0.90000,1.10000,0.90000
   102,'BUS 2       ', 138.0000,3,   1,   1,   1,1.01000,   0.0000,1.10000,0.90000,1.10000,0.90000
   103,'BUS 3       ', 138.0000,2,   1,   1,   1,1.01500,   0.2863,1.10000,0.90000,1.10000,0.90000
 0 /End of Bus data, Begin Load data
   101,'1 ',1,   1,   1,    30.000,    10.000,     0.000,     0.000,     0.000,     0.000,   1,1,0
   102,'1 ',1,   1,   1,    30.000,    10.000,     0.000,     0.000,     0.000,     0.000,   1,1,0
 0 /End of Load data, Begin Fixed shunt data
 0 /End of Fixed shunt data, Begin Generator data
   103,'1 ',    40.000,     9.952,    99.000,   -99.000,1.01500,     0,   100.000, 0.00000E+0, 1.00000E-4, 0.00000E+0, 0.00000E+0,1.00000,1,  100.0,   318.000,     0.000,   1,1.0000,    ,      ,    ,      ,    ,      ,1, 1.0000
 0 /End of Generator data, Begin Branch data
   101,   102,'1 ', 1.00000E-2, 1.20000E-1,   0.00000,  250.00,  250.00,  250.00,  0.00000,  0.00000,  0.00000,  0.00000,1,1,   0.00,   1,1.0000
   101,   103,'1 ', 1.00000E-2, 1.20000E-1,   0.00000,  250.00,  250.00,  250.00,  0.00000,  0.00000,  0.00000,  0.00000,1,1,   0.00,   1,1.0000
   102,   103,'1 ', 1.00000E-2, 1.20000E-1,   0.00000,  250.00,  250.00,  250.00,  0.00000,  0.00000,  0.00000,  0.00000,1,1,   0.00,   1,1.0000
 0 /End of Branch data, Begin Transformer data
 0 /End of Transformer data, Begin Area interchange data
 0 /End of Area interchange data, Begin Two-terminal dc line data
 0 /End of Two-terminal dc line data, Begin VSC dc line data
 0 /End of VSC dc line data, Begin Impedance correction table data
 0 /End of Impedance correction table data, Begin Multi-terminal dc line data
 0 /End of Multi-terminal dc line data, Begin Multi-section line data
 0 /End of Multi-section line data, Begin Zone data
 0 /End of Zone data, Begin Inter-area transfer data
 0 /End of Inter-area transfer data, Begin Owner data
 0 /End of Owner data, Begin FACTS device data
 0 /End of FACTS device data, Begin Switched shunt data
 0 /End of Switched shunt data, Begin GNE device data
 0 /End of GNE device data, Begin Induction machine data
 0 /End of Induction machine data
Q
